Circuit: * C:\Users\Geovanne\Documents\Git\UFSC\Eletronica Aplicada\moduloAlimentacao.asc

.OP point found by inspection.

Date: Fri Dec  1 17:32:52 2023
Total elapsed time: 0.146 seconds.

tnom = 27
temp = 27
method = modified trap
totiter = 2840
traniter = 2840
tranpoints = 1285
accept = 1205
rejected = 80
matrix size = 6
fillins = 0
solver = Normal
Avg thread counts: 2.0/3.1/3.0/2.0
Matrix Compiler1:      12 opcodes  0.4/[0.3]/0.4
Matrix Compiler2: off  [0.2]/0.3/0.2

