Circuit: * C:\Users\Geovanne\Documents\Git\UFSC\Eletronica Aplicada\moduloAlimentacao.asc

.OP point found by inspection.

Date: Fri Nov 17 15:53:17 2023
Total elapsed time: 0.236 seconds.

tnom = 27
temp = 27
method = modified trap
totiter = 2795
traniter = 2795
tranpoints = 1279
accept = 1200
rejected = 79
matrix size = 6
fillins = 0
solver = Normal
Avg thread counts: 2.0/3.1/3.1/2.0
Matrix Compiler1: 218 bytes object code size  0.5/0.3/[0.4]
Matrix Compiler2: 394 bytes object code size  0.2/0.4/[0.3]

